<?xml version="1.0" encoding="UTF-8"?>
<ui version="4.0">
 <class>QSWATMODDialogBase</class>
 <widget class="QDialog" name="QSWATMODDialogBase">
  <property name="geometry">
   <rect>
    <x>0</x>
    <y>0</y>
    <width>702</width>
    <height>750</height>
   </rect>
  </property>
  <property name="windowTitle">
   <string>QSWATMOD2</string>
  </property>
  <property name="windowIcon">
   <iconset resource="resources.qrc">
    <normaloff>:/QSWATMOD2/pics/sm_icon.png</normaloff>:/QSWATMOD2/pics/sm_icon.png</iconset>
  </property>
  <layout class="QVBoxLayout" name="verticalLayout_5">
   <item>
    <widget class="QTabWidget" name="tabWidget">
     <property name="enabled">
      <bool>true</bool>
     </property>
     <property name="sizePolicy">
      <sizepolicy hsizetype="Expanding" vsizetype="Expanding">
       <horstretch>0</horstretch>
       <verstretch>0</verstretch>
      </sizepolicy>
     </property>
     <property name="minimumSize">
      <size>
       <width>0</width>
       <height>0</height>
      </size>
     </property>
     <property name="maximumSize">
      <size>
       <width>16777215</width>
       <height>16777215</height>
      </size>
     </property>
     <property name="autoFillBackground">
      <bool>true</bool>
     </property>
     <property name="currentIndex">
      <number>4</number>
     </property>
     <widget class="QWidget" name="General">
      <attribute name="title">
       <string>About</string>
      </attribute>
      <layout class="QVBoxLayout" name="verticalLayout_10">
       <item>
        <layout class="QHBoxLayout" name="horizontalLayout_6">
         <item>
          <widget class="QLabel" name="label_logo">
           <property name="maximumSize">
            <size>
             <width>150</width>
             <height>150</height>
            </size>
           </property>
           <property name="text">
            <string/>
           </property>
           <property name="pixmap">
            <pixmap resource="resources.qrc">:/QSWATMOD2/pics/sm_icon.png</pixmap>
           </property>
           <property name="scaledContents">
            <bool>true</bool>
           </property>
          </widget>
         </item>
         <item>
          <widget class="QTextBrowser" name="textBrowser">
           <property name="sizePolicy">
            <sizepolicy hsizetype="Minimum" vsizetype="Minimum">
             <horstretch>0</horstretch>
             <verstretch>0</verstretch>
            </sizepolicy>
           </property>
           <property name="html">
            <string>&lt;!DOCTYPE HTML PUBLIC &quot;-//W3C//DTD HTML 4.0//EN&quot; &quot;http://www.w3.org/TR/REC-html40/strict.dtd&quot;&gt;
&lt;html&gt;&lt;head&gt;&lt;meta name=&quot;qrichtext&quot; content=&quot;1&quot; /&gt;&lt;style type=&quot;text/css&quot;&gt;
p, li { white-space: pre-wrap; }
&lt;/style&gt;&lt;/head&gt;&lt;body style=&quot; font-family:'MS Shell Dlg 2'; font-size:7.8pt; font-weight:400; font-style:normal;&quot;&gt;
&lt;p style=&quot; margin-top:12px; margin-bottom:0px; margin-left:0px; margin-right:0px; -qt-block-indent:0; text-indent:0px;&quot;&gt;&lt;span style=&quot; font-family:'AdvTT6120e2aa,serif'; font-size:9pt;&quot;&gt;    The coupled QSWATMOD2 framework developed in this study combines the updated SWAT 2012 model (Revision 591) with MODFLOW-NWT. Within the framework, SWAT simulates land surface processes, crop growth, in-stream processes and soil zone processes, whereas MODFLOW-NWT simulates three-dimensional groundwater &lt;/span&gt;&lt;span style=&quot; font-size:9pt;&quot;&gt;fl&lt;/span&gt;&lt;span style=&quot; font-family:'AdvTT6120e2aa,serif'; font-size:9pt;&quot;&gt;ow and all associated sources and sinks (e.g. recharge, pumping, discharge to tile drains and interaction with stream network).&lt;/span&gt;&lt;span style=&quot; font-size:9pt;&quot;&gt; &lt;/span&gt;&lt;span style=&quot; font-family:'AdvTT6120e2aa,serif'; font-size:9pt;&quot;&gt;The basic process of linking the SWAT and MODFLOW models is to pass HRU-calculated deep percolation (i.e. water that exits the bottom of the soil pro&lt;/span&gt;&lt;span style=&quot; font-size:9pt;&quot;&gt;fi&lt;/span&gt;&lt;span style=&quot; font-family:'AdvTT6120e2aa,serif'; font-size:9pt;&quot;&gt;le) as recharge to the grid cells of MODFLOW, and then pass MODFLOW-calculated groundwater–surface water interaction fluxes to the stream channels of SWAT.&lt;/span&gt;&lt;/p&gt;&lt;/body&gt;&lt;/html&gt;</string>
           </property>
          </widget>
         </item>
        </layout>
       </item>
       <item>
        <layout class="QHBoxLayout" name="horizontalLayout_7">
         <item>
          <widget class="QPushButton" name="pushButton_newproject">
           <property name="text">
            <string>Create new project</string>
           </property>
          </widget>
         </item>
         <item>
          <widget class="Line" name="line_4">
           <property name="orientation">
            <enum>Qt::Vertical</enum>
           </property>
          </widget>
         </item>
         <item>
          <widget class="QPushButton" name="pushButton_existingproject">
           <property name="text">
            <string>Open existing project</string>
           </property>
          </widget>
         </item>
        </layout>
       </item>
       <item>
        <layout class="QHBoxLayout" name="horizontalLayout_9">
         <property name="leftMargin">
          <number>2</number>
         </property>
         <property name="topMargin">
          <number>2</number>
         </property>
         <property name="rightMargin">
          <number>2</number>
         </property>
         <property name="bottomMargin">
          <number>2</number>
         </property>
         <item>
          <widget class="QLabel" name="label_18">
           <property name="maximumSize">
            <size>
             <width>100</width>
             <height>16777215</height>
            </size>
           </property>
           <property name="font">
            <font>
             <pointsize>10</pointsize>
             <weight>50</weight>
             <bold>false</bold>
            </font>
           </property>
           <property name="text">
            <string>Project name:</string>
           </property>
          </widget>
         </item>
         <item>
          <widget class="QLineEdit" name="lineEdit_Project_Name">
           <property name="sizePolicy">
            <sizepolicy hsizetype="Preferred" vsizetype="Fixed">
             <horstretch>0</horstretch>
             <verstretch>0</verstretch>
            </sizepolicy>
           </property>
          </widget>
         </item>
         <item>
          <widget class="Line" name="line_7">
           <property name="orientation">
            <enum>Qt::Vertical</enum>
           </property>
          </widget>
         </item>
         <item>
          <widget class="QLabel" name="label_27">
           <property name="font">
            <font>
             <pointsize>10</pointsize>
            </font>
           </property>
           <property name="text">
            <string>Project Path:</string>
           </property>
          </widget>
         </item>
         <item>
          <widget class="QLineEdit" name="lineEdit_proj_path">
           <property name="autoFillBackground">
            <bool>false</bool>
           </property>
           <property name="frame">
            <bool>false</bool>
           </property>
           <property name="readOnly">
            <bool>true</bool>
           </property>
          </widget>
         </item>
        </layout>
       </item>
       <item>
        <spacer name="verticalSpacer_2">
         <property name="orientation">
          <enum>Qt::Vertical</enum>
         </property>
         <property name="sizeHint" stdset="0">
          <size>
           <width>20</width>
           <height>80</height>
          </size>
         </property>
        </spacer>
       </item>
       <item>
        <layout class="QHBoxLayout" name="horizontalLayout_8">
         <property name="topMargin">
          <number>5</number>
         </property>
         <item>
          <spacer name="horizontalSpacer_4">
           <property name="orientation">
            <enum>Qt::Horizontal</enum>
           </property>
           <property name="sizeHint" stdset="0">
            <size>
             <width>40</width>
             <height>20</height>
            </size>
           </property>
          </spacer>
         </item>
         <item>
          <widget class="QLabel" name="label_10">
           <property name="sizePolicy">
            <sizepolicy hsizetype="Preferred" vsizetype="Preferred">
             <horstretch>0</horstretch>
             <verstretch>0</verstretch>
            </sizepolicy>
           </property>
           <property name="minimumSize">
            <size>
             <width>580</width>
             <height>260</height>
            </size>
           </property>
           <property name="maximumSize">
            <size>
             <width>580</width>
             <height>260</height>
            </size>
           </property>
           <property name="text">
            <string/>
           </property>
           <property name="pixmap">
            <pixmap resource="resources.qrc">:/QSWATMOD2/pics/SMdiagram_2.png</pixmap>
           </property>
           <property name="scaledContents">
            <bool>true</bool>
           </property>
           <property name="alignment">
            <set>Qt::AlignCenter</set>
           </property>
          </widget>
         </item>
         <item>
          <spacer name="horizontalSpacer_5">
           <property name="orientation">
            <enum>Qt::Horizontal</enum>
           </property>
           <property name="sizeHint" stdset="0">
            <size>
             <width>40</width>
             <height>20</height>
            </size>
           </property>
          </spacer>
         </item>
        </layout>
       </item>
       <item>
        <widget class="QDialogButtonBox" name="button_box">
         <property name="sizePolicy">
          <sizepolicy hsizetype="Minimum" vsizetype="Fixed">
           <horstretch>0</horstretch>
           <verstretch>0</verstretch>
          </sizepolicy>
         </property>
         <property name="orientation">
          <enum>Qt::Horizontal</enum>
         </property>
         <property name="standardButtons">
          <set>QDialogButtonBox::Cancel|QDialogButtonBox::Ok</set>
         </property>
        </widget>
       </item>
      </layout>
     </widget>
     <widget class="QWidget" name="tab_2">
      <property name="enabled">
       <bool>true</bool>
      </property>
      <attribute name="title">
       <string>Pre-Processing</string>
      </attribute>
      <layout class="QVBoxLayout" name="verticalLayout_4">
       <item>
        <widget class="QLabel" name="label_13">
         <property name="font">
          <font>
           <pointsize>10</pointsize>
           <weight>75</weight>
           <bold>true</bold>
          </font>
         </property>
         <property name="text">
          <string>SWAT-MODFLOW input files</string>
         </property>
        </widget>
       </item>
       <item>
        <widget class="QScrollArea" name="scrollArea_2">
         <property name="sizePolicy">
          <sizepolicy hsizetype="Expanding" vsizetype="Expanding">
           <horstretch>0</horstretch>
           <verstretch>0</verstretch>
          </sizepolicy>
         </property>
         <property name="frameShape">
          <enum>QFrame::StyledPanel</enum>
         </property>
         <property name="frameShadow">
          <enum>QFrame::Sunken</enum>
         </property>
         <property name="lineWidth">
          <number>0</number>
         </property>
         <property name="widgetResizable">
          <bool>true</bool>
         </property>
         <property name="alignment">
          <set>Qt::AlignLeading|Qt::AlignLeft|Qt::AlignVCenter</set>
         </property>
         <widget class="QWidget" name="scrollAreaWidgetContents_2">
          <property name="geometry">
           <rect>
            <x>0</x>
            <y>-373</y>
            <width>659</width>
            <height>734</height>
           </rect>
          </property>
          <layout class="QVBoxLayout" name="verticalLayout_6">
           <item>
            <widget class="QGroupBox" name="groupBox_SWAT">
             <property name="enabled">
              <bool>true</bool>
             </property>
             <property name="sizePolicy">
              <sizepolicy hsizetype="Preferred" vsizetype="Fixed">
               <horstretch>0</horstretch>
               <verstretch>0</verstretch>
              </sizepolicy>
             </property>
             <property name="font">
              <font>
               <pointsize>8</pointsize>
               <weight>75</weight>
               <bold>true</bold>
              </font>
             </property>
             <property name="title">
              <string>SWAT -Specify path to TxtInOut folder / Load SWAT Subbasin, HRU, and River Shapefiles</string>
             </property>
             <property name="flat">
              <bool>false</bool>
             </property>
             <property name="checkable">
              <bool>false</bool>
             </property>
             <property name="checked">
              <bool>false</bool>
             </property>
             <layout class="QGridLayout" name="gridLayout_5">
              <property name="topMargin">
               <number>3</number>
              </property>
              <property name="bottomMargin">
               <number>3</number>
              </property>
              <property name="verticalSpacing">
               <number>0</number>
              </property>
              <item row="3" column="1">
               <widget class="QLineEdit" name="lineEdit_river_shapefile">
                <property name="readOnly">
                 <bool>true</bool>
                </property>
               </widget>
              </item>
              <item row="0" column="2">
               <widget class="QPushButton" name="pushButton_TxtInOut">
                <property name="font">
                 <font>
                  <pointsize>8</pointsize>
                  <weight>50</weight>
                  <italic>false</italic>
                  <bold>false</bold>
                 </font>
                </property>
                <property name="text">
                 <string>...</string>
                </property>
                <property name="checkable">
                 <bool>false</bool>
                </property>
               </widget>
              </item>
              <item row="1" column="1">
               <widget class="QLineEdit" name="lineEdit_hru_shapefile">
                <property name="readOnly">
                 <bool>true</bool>
                </property>
               </widget>
              </item>
              <item row="1" column="0">
               <widget class="QLabel" name="label_17">
                <property name="font">
                 <font>
                  <pointsize>8</pointsize>
                  <weight>50</weight>
                  <bold>false</bold>
                 </font>
                </property>
                <property name="text">
                 <string>HRU:</string>
                </property>
               </widget>
              </item>
              <item row="2" column="2">
               <widget class="QPushButton" name="pushButton_subbasin_shapefile">
                <property name="font">
                 <font>
                  <pointsize>8</pointsize>
                  <weight>50</weight>
                  <italic>false</italic>
                  <bold>false</bold>
                 </font>
                </property>
                <property name="text">
                 <string>...</string>
                </property>
                <property name="checkable">
                 <bool>false</bool>
                </property>
               </widget>
              </item>
              <item row="3" column="0">
               <widget class="QLabel" name="label_14">
                <property name="font">
                 <font>
                  <pointsize>8</pointsize>
                  <weight>50</weight>
                  <bold>false</bold>
                 </font>
                </property>
                <property name="text">
                 <string>River:</string>
                </property>
               </widget>
              </item>
              <item row="0" column="1">
               <widget class="QLineEdit" name="lineEdit_TxtInOut">
                <property name="readOnly">
                 <bool>true</bool>
                </property>
               </widget>
              </item>
              <item row="3" column="2">
               <widget class="QPushButton" name="pushButton_river_shapefile">
                <property name="font">
                 <font>
                  <pointsize>8</pointsize>
                  <weight>50</weight>
                  <italic>false</italic>
                  <bold>false</bold>
                 </font>
                </property>
                <property name="text">
                 <string>...</string>
                </property>
                <property name="checkable">
                 <bool>false</bool>
                </property>
               </widget>
              </item>
              <item row="2" column="1">
               <widget class="QLineEdit" name="lineEdit_subbasin_shapefile">
                <property name="readOnly">
                 <bool>true</bool>
                </property>
               </widget>
              </item>
              <item row="1" column="2">
               <widget class="QPushButton" name="pushButton_hru_shapefile">
                <property name="font">
                 <font>
                  <pointsize>8</pointsize>
                  <weight>50</weight>
                  <italic>false</italic>
                  <bold>false</bold>
                 </font>
                </property>
                <property name="text">
                 <string>...</string>
                </property>
                <property name="checkable">
                 <bool>false</bool>
                </property>
               </widget>
              </item>
              <item row="2" column="0">
               <widget class="QLabel" name="label_15">
                <property name="font">
                 <font>
                  <pointsize>8</pointsize>
                  <weight>50</weight>
                  <bold>false</bold>
                 </font>
                </property>
                <property name="text">
                 <string>SUB:</string>
                </property>
               </widget>
              </item>
              <item row="0" column="0">
               <widget class="QLabel" name="label_16">
                <property name="font">
                 <font>
                  <pointsize>8</pointsize>
                  <weight>50</weight>
                  <bold>false</bold>
                 </font>
                </property>
                <property name="text">
                 <string>TxtInOut:</string>
                </property>
               </widget>
              </item>
             </layout>
            </widget>
           </item>
           <item>
            <widget class="QGroupBox" name="groupBox_MF_options">
             <property name="enabled">
              <bool>false</bool>
             </property>
             <property name="sizePolicy">
              <sizepolicy hsizetype="Preferred" vsizetype="Preferred">
               <horstretch>0</horstretch>
               <verstretch>0</verstretch>
              </sizepolicy>
             </property>
             <property name="minimumSize">
              <size>
               <width>0</width>
               <height>0</height>
              </size>
             </property>
             <property name="font">
              <font>
               <pointsize>8</pointsize>
               <weight>75</weight>
               <bold>true</bold>
              </font>
             </property>
             <property name="title">
              <string>MODFLOW options</string>
             </property>
             <property name="flat">
              <bool>false</bool>
             </property>
             <layout class="QVBoxLayout" name="verticalLayout_8">
              <property name="leftMargin">
               <number>6</number>
              </property>
              <property name="topMargin">
               <number>6</number>
              </property>
              <property name="rightMargin">
               <number>6</number>
              </property>
              <property name="bottomMargin">
               <number>6</number>
              </property>
              <item>
               <layout class="QGridLayout" name="gridLayout_6">
                <property name="sizeConstraint">
                 <enum>QLayout::SetDefaultConstraint</enum>
                </property>
                <property name="verticalSpacing">
                 <number>0</number>
                </property>
                <item row="0" column="0">
                 <widget class="QLabel" name="label_20">
                  <property name="font">
                   <font>
                    <pointsize>8</pointsize>
                    <weight>50</weight>
                    <bold>false</bold>
                   </font>
                  </property>
                  <property name="text">
                   <string>MODFLOW model folder:</string>
                  </property>
                 </widget>
                </item>
                <item row="0" column="1">
                 <widget class="QLineEdit" name="lineEdit_MODFLOW"/>
                </item>
                <item row="0" column="2">
                 <widget class="QPushButton" name="pushButton_MODFLOWfile">
                  <property name="font">
                   <font>
                    <pointsize>8</pointsize>
                    <weight>50</weight>
                    <bold>false</bold>
                   </font>
                  </property>
                  <property name="text">
                   <string>...</string>
                  </property>
                 </widget>
                </item>
               </layout>
              </item>
              <item>
               <layout class="QVBoxLayout" name="verticalLayout_11">
                <property name="topMargin">
                 <number>0</number>
                </property>
                <property name="bottomMargin">
                 <number>0</number>
                </property>
                <item>
                 <widget class="QgsCollapsibleGroupBox" name="mf_option_1">
                  <property name="enabled">
                   <bool>false</bool>
                  </property>
                  <property name="font">
                   <font>
                    <pointsize>8</pointsize>
                    <weight>50</weight>
                    <bold>false</bold>
                   </font>
                  </property>
                  <property name="title">
                   <string>Option 1: MODFLOW model (✔) |  MODFLOW grid shapefile (✔)</string>
                  </property>
                  <property name="flat">
                   <bool>true</bool>
                  </property>
                  <property name="checkable">
                   <bool>true</bool>
                  </property>
                  <property name="checked">
                   <bool>false</bool>
                  </property>
                  <property name="collapsed">
                   <bool>true</bool>
                  </property>
                  <property name="saveCollapsedState">
                   <bool>false</bool>
                  </property>
                  <layout class="QHBoxLayout" name="horizontalLayout_15">
                   <property name="spacing">
                    <number>6</number>
                   </property>
                   <property name="leftMargin">
                    <number>6</number>
                   </property>
                   <property name="topMargin">
                    <number>6</number>
                   </property>
                   <property name="rightMargin">
                    <number>6</number>
                   </property>
                   <property name="bottomMargin">
                    <number>6</number>
                   </property>
                   <item>
                    <widget class="QLabel" name="label_25">
                     <property name="maximumSize">
                      <size>
                       <width>16777215</width>
                       <height>16777215</height>
                      </size>
                     </property>
                     <property name="text">
                      <string>- MODFLOW grid shapefile:</string>
                     </property>
                    </widget>
                   </item>
                   <item>
                    <widget class="QLineEdit" name="lineEdit_MODFLOW_grid_shapefile">
                     <property name="sizePolicy">
                      <sizepolicy hsizetype="Expanding" vsizetype="Fixed">
                       <horstretch>0</horstretch>
                       <verstretch>0</verstretch>
                      </sizepolicy>
                     </property>
                     <property name="minimumSize">
                      <size>
                       <width>0</width>
                       <height>0</height>
                      </size>
                     </property>
                    </widget>
                   </item>
                   <item>
                    <widget class="QPushButton" name="pushButton_MF_grid_shapefile">
                     <property name="sizePolicy">
                      <sizepolicy hsizetype="Preferred" vsizetype="Fixed">
                       <horstretch>0</horstretch>
                       <verstretch>0</verstretch>
                      </sizepolicy>
                     </property>
                     <property name="maximumSize">
                      <size>
                       <width>60</width>
                       <height>16777215</height>
                      </size>
                     </property>
                     <property name="font">
                      <font>
                       <pointsize>8</pointsize>
                       <weight>50</weight>
                       <italic>false</italic>
                       <bold>false</bold>
                      </font>
                     </property>
                     <property name="text">
                      <string>...</string>
                     </property>
                     <property name="checkable">
                      <bool>false</bool>
                     </property>
                    </widget>
                   </item>
                  </layout>
                 </widget>
                </item>
                <item>
                 <widget class="QgsCollapsibleGroupBox" name="mf_option_2">
                  <property name="font">
                   <font>
                    <pointsize>8</pointsize>
                    <weight>50</weight>
                    <bold>false</bold>
                   </font>
                  </property>
                  <property name="layoutDirection">
                   <enum>Qt::LeftToRight</enum>
                  </property>
                  <property name="title">
                   <string>Option 2: MODFLOW model (✔) |  MODFLOW grid shapefile (✖)</string>
                  </property>
                  <property name="flat">
                   <bool>true</bool>
                  </property>
                  <property name="checkable">
                   <bool>true</bool>
                  </property>
                  <property name="checked">
                   <bool>false</bool>
                  </property>
                  <property name="collapsed">
                   <bool>true</bool>
                  </property>
                  <property name="saveCollapsedState">
                   <bool>false</bool>
                  </property>
                  <layout class="QVBoxLayout" name="verticalLayout_12">
                   <property name="spacing">
                    <number>6</number>
                   </property>
                   <property name="leftMargin">
                    <number>6</number>
                   </property>
                   <property name="topMargin">
                    <number>6</number>
                   </property>
                   <property name="rightMargin">
                    <number>6</number>
                   </property>
                   <property name="bottomMargin">
                    <number>6</number>
                   </property>
                   <item>
                    <widget class="QLabel" name="label_22">
                     <property name="text">
                      <string>- MODFLOW Grid Origin Coordinate at North-West</string>
                     </property>
                    </widget>
                   </item>
                   <item>
                    <layout class="QHBoxLayout" name="horizontalLayout_62">
                     <property name="topMargin">
                      <number>0</number>
                     </property>
                     <item>
                      <layout class="QVBoxLayout" name="verticalLayout_51">
                       <property name="topMargin">
                        <number>0</number>