Plugin Builder Results

Your plugin QSWATMOD2 was created in:
    C:\Users\envpsg\.qgis2\python\plugins\QSWATMOD2

Your QGIS plugin directory is located at:
    C:/Users/envpsg/.qgis2/python/plugins

What's Next:

  * Copy the entire directory containing your new plugin to the QGIS plugin
    directory

  * Compile the resources file using pyrcc4

  * Run the tests (``make test``)

  * Test the plugin by enabling it in the QGIS plugin manager

  * Customize it by editing the implementation file: ``QSWATMOD2.py``

  * Create your own custom icon, replacing the default icon.png

  * Modify your user interface by opening QSWATMOD2.ui in Qt Designer

  * You can use the Makefile to compile your Ui and resource files when
    you make changes. This requires GNU make (gmake)

For more information, see the PyQGIS Developer Cookbook at:
http://www.qgis.org/pyqgis-cookbook/index.html

(C) 2011-2014 GeoApt LLC - geoapt.com
Git revision : $Format:%H$
