<?xml version="1.0" encoding="UTF-8"?>
<ui version="4.0">
 <class>MODFLOW_Simulation</class>
 <widget class="QDialog" name="MODFLOW_Simulation">
  <property name="enabled">
   <bool>true</bool>
  </property>
  <property name="geometry">
   <rect>
    <x>0</x>
    <y>0</y>
    <width>604</width>
    <height>716</height>
   </rect>
  </property>
  <property name="windowTitle">
   <string>Create MODFLOW model </string>
  </property>
  <property name="windowIcon">
   <iconset resource="../../resources.qrc">
    <normaloff>:/QSWATMOD2/pics/sm_icon.png</normaloff>:/QSWATMOD2/pics/sm_icon.png</iconset>
  </property>
  <layout class="QVBoxLayout" name="verticalLayout">
   <item>
    <widget class="QScrollArea" name="scrollArea">
     <property name="widgetResizable">
      <bool>true</bool>
     </property>
     <widget class="QWidget" name="scrollAreaWidgetContents">
      <property name="geometry">
       <rect>
        <x>0</x>
        <y>0</y>
        <width>567</width>
        <height>925</height>
       </rect>
      </property>
      <layout class="QVBoxLayout" name="verticalLayout_2">
       <item>
        <widget class="QGroupBox" name="groupBox_5">
         <property name="font">
          <font>
           <weight>75</weight>
           <bold>true</bold>
          </font>
         </property>
         <property name="title">
          <string>Create Model Folder / Name</string>
         </property>
         <layout class="QVBoxLayout" name="verticalLayout_3">
          <item>
           <layout class="QHBoxLayout" name="horizontalLayout_3">
            <item>
             <widget class="QLabel" name="label_2">
              <property name="font">
               <font>
                <weight>50</weight>
                <bold>false</bold>
               </font>
              </property>
              <property name="text">
               <string>MODFLOW Folder:</string>
              </property>
             </widget>
            </item>
            <item>
             <widget class="QLineEdit" name="lineEdit_createMFfolder"/>
            </item>
            <item>
             <widget class="QPushButton" name="pushButton_createMFfolder">
              <property name="maximumSize">
               <size>
                <width>50</width>
                <height>16777215</height>
               </size>
              </property>
              <property name="font">
               <font>
                <weight>50</weight>
                <bold>false</bold>
               </font>
              </property>
              <property name="text">
               <string>...</string>
              </property>
             </widget>
            </item>
            <item>
             <widget class="QLabel" name="label">
              <property name="font">
               <font>
                <weight>50</weight>
                <bold>false</bold>
               </font>
              </property>
              <property name="text">
               <string>Model Name:</string>
              </property>
             </widget>
            </item>
            <item>
             <widget class="QLineEdit" name="lineEdit_mname">
              <property name="maximumSize">
               <size>
                <width>150</width>
                <height>16777215</height>
               </size>
              </property>
             </widget>
            </item>
           </layout>
          </item>
         </layout>
        </widget>
       </item>
       <item>
        <widget class="QGroupBox" name="groupBox">
         <property name="font">
          <font>
           <weight>75</weight>
           <bold>true</bold>
          </font>
         </property>
         <property name="title">
          <string>Load DEM / MODFLOW Boundary Shapefile</string>
         </property>
         <layout class="QVBoxLayout" name="verticalLayout_5">
          <item>
           <layout class="QHBoxLayout" name="horizontalLayout">
            <property name="leftMargin">
             <number>2</number>
            </property>
            <property name="topMargin">
             <number>2</number>
            </property>
            <item>
             <widget class="QLabel" name="label_6">
              <property name="font">
               <font>
                <weight>50</weight>
                <bold>false</bold>
               </font>
              </property>
              <property name="text">
               <string>DEM: </string>
              </property>
             </widget>
            </item>
            <item>
             <widget class="QLineEdit" name="lineEdit_loadDEM"/>
            </item>
            <item>
             <widget class="QPushButton" name="pushButton_loadDEM">
              <property name="font">
               <font>
                <weight>50</weight>
                <bold>false</bold>
               </font>
              </property>
              <property name="text">
               <string>...</string>
              </property>
             </widget>
            </item>
           </layout>
          </item>
          <item>
           <layout class="QHBoxLayout" name="horizontalLayout_9">
            <item>
             <widget class="QLabel" name="label_7">
              <property name="font">
               <font>
                <weight>50</weight>
                <bold>false</bold>
               </font>
              </property>
              <property name="text">
               <string>Boundary Shapefile: </string>
              </property>
             </widget>
            </item>
            <item>
             <widget class="QLineEdit" name="lineEdit_boundary"/>
            </item>
            <item>
             <widget class="QPushButton" name="pushButton_boundary">
              <property name="maximumSize">
               <size>
                <width>50</width>
                <height>16777215</height>
               </size>
              </property>
              <property name="font">
               <font>
                <weight>50</weight>
                <bold>false</bold>
               </font>
              </property>
              <property name="text">
               <string>...</string>
              </property>
             </widget>
            </item>
            <item>
             <widget class="QCheckBox" name="checkBox_use_sub">
              <property name="font">
               <font>
                <weight>50</weight>
                <bold>false</bold>
               </font>
              </property>
              <property name="text">
               <string>: Use extent of Subbasin area</string>
              </property>
             </widget>
            </item>
           </layout>
          </item>
         </layout>
        </widget>
       </item>
       <item>
        <widget class="QGroupBox" name="groupBox_6">
         <property name="font">
          <font>
           <weight>75</weight>
           <bold>true</bold>
          </font>
         </property>
         <property name="title">
          <string>Set up MODFLOW Grid Size (in map unit)</string>
         </property>
         <layout class="QVBoxLayout" name="verticalLayout_4">
          <item>
           <layout class="QHBoxLayout" name="horizontalLayout_25">
            <property name="topMargin">
             <number>0</number>
            </property>
            <item>
             <layout class="QVBoxLayout" name="verticalLayout_13">
              <property name="leftMargin">
               <number>0</number>
              </property>
              <property name="topMargin">
               <number>0</number>
              </property>
              <item>
               <layout class="QHBoxLayout" name="horizontalLayout_26">
                <property name="topMargin">
                 <number>0</number>
                </property>
                <item>
                 <widget class="QLabel" name="label_3">
                  <property name="maximumSize">
                   <size>
                    <width>20</width>
                    <height>16777215</height>
                   </size>
                  </property>
                  <property name="font">
                   <font>
                    <weight>50</weight>
                    <bold>false</bold>
                   </font>
                  </property>
                  <property name="text">
                   <string>X:</string>
                  </property>
                 </widget>
                </item>
                <item>
                 <widget class="QDoubleSpinBox" name="doubleSpinBox_delc">
                  <property name="sizePolicy">
                   <sizepolicy hsizetype="Expanding" vsizetype="Fixed">
                    <horstretch>0</horstretch>
                    <verstretch>0</verstretch>
                   </sizepolicy>
                  </property>
                  <property name="font">
                   <font>
                    <weight>50</weight>
                    <bold>false</bold>
                   </font>
                  </property>
                  <property name="maximum">
                   <double>1000000000.000000000000000</double>
                  </property>
                 </widget>
                </item>
                <item>
                 <spacer name="horizontalSpacer">
                  <property name="orientation">
                   <enum>Qt::Horizontal</enum>
                  </property>
                  <property name="sizeType">
                   <enum>QSizePolicy::Preferred</enum>
                  </property>
                  <property name="sizeHint" stdset="0">
                   <size>
                    <width>10</width>
                    <height>20</height>
                   </size>
                  </property>
                 </spacer>
                </item>
                <item>
                 <widget class="QLabel" name="label_4">
                  <property name="maximumSize">
                   <size>
                    <width>20</width>
                    <height>16777215</height>
                   </size>
                  </property>
                  <property name="font">
                   <font>
                    <weight>50</weight>
                    <bold>false</bold>
                   </font>
                  </property>
                  <property name="text">
                   <string>Y:</string>
                  </property>
                 </widget>
                </item>
                <item>
                 <widget class="QDoubleSpinBox" name="doubleSpinBox_delr">
                  <property name="sizePolicy">
                   <sizepolicy hsizetype="Expanding" vsizetype="Fixed">
                    <horstretch>0</horstretch>
                    <verstretch>0</verstretch>
                   </sizepolicy>
                  </property>
                  <property name="font">
                   <font>
                    <weight>50</weight>
                    <bold>false</bold>
                   </font>
                  </property>
                  <property name="maximum">
                   <double>1000000000.000000000000000</double>
                  </property>
                 </widget>
                </item>
                <item>
                 <spacer name="horizontalSpacer_2">
                  <property name="orientation">
                   <enum>Qt::Horizontal</enum>
                  </property>
                  <property name="sizeType">
                   <enum>QSizePolicy::Preferred</enum>
                  </property>
                  <property name="sizeHint" stdset="0">
                   <size>
                    <width>10</width>
                    <height>20</height>
                   </size>
                  </property>
                 </spacer>
                </item>
                <item>
                 <widget class="QCheckBox" name="checkBox_ratio">
                  <property name="font">
                   <font>
                    <weight>50</weight>
                    <bold>false</bold>
                   </font>
                  </property>
                  <property name="text">
                   <string>1:1 ratio</string>
                  </property>
                  <property name="checked">
                   <bool>true</bool>
                  </property>
                 </widget>
                </item>
               </layout>
              </item>
              <item>
               <widget class="QGroupBox" name="groupBox_mf_add">
                <property name="font">
                 <font>
                  <weight>50</weight>
                  <bold>false</bold>
                  <kerning>true</kerning>
                 </font>
                </property>
                <property name="title">
                 <string>Add or Subtract Row and Column</string>
                </property>
                <property name="checkable">
                 <bool>true</bool>
                </property>
                <property name="checked">
                 <bool>false</bool>
                </property>
                <layout class="QHBoxLayout" name="horizontalLayout_27">
                 <item>
                  <widget class="QLabel" name="label_17">
                   <property name="text">
                    <string>Row number:</string>
                   </property>
                  </widget>
                 </item>
                 <item>
                  <widget class="QSpinBox" name="spinBox_row">
                   <property name="minimum">
                    <number>-10</number>
                   </property>
                   <property name="maximum">
                    <number>10</number>
                   </property>
                  </widget>
                 </item>
                 <item>
                  <widget class="Line" name="line_2">
                   <property name="orientation">
                    <enum>Qt::Vertical</enum>
                   </property>
                  </widget>
                 </item>
                 <item>
                  <widget class="QLabel" name="label_19">
                   <property name="text">
                    <string>Column number:</string>
                   </property>
                  </widget>
                 </item>
                 <item>
                  <widget class="QSpinBox" name="spinBox_col">
                   <property name="minimum">
                    <number>-10</number>
                   </property>
                   <property name="maximum">
                    <number>10</number>
                   </property>
                  </widget>
                 </item>
                </layout>
               </widget>
              </item>
             </layout>
            </item>
            <item>
             <layout class="QVBoxLayout" name="verticalLayout_14">
              <property name="leftMargin">
               <number>0</number>
              </property>
              <item>
               <widget class="QLabel" name="label_5">
                <property name="font">
                 <font>
                  <weight>50</weight>
                  <bold>false</bold>
                 </font>
                </property>
                <property name="text">
                 <string>Estimated number of grid cells:</string>
                </property>
               </widget>
              </item>
              <item>
               <widget class="QLCDNumber" name="lcdNumber_numberOfgrids">
                <property name="sizePolicy">
                 <sizepolicy hsizetype="Expanding" vsizetype="Expanding">
                  <horstretch>0</horstretch>
                  <verstretch>0</verstretch>
                 </sizepolicy>
                </property>
                <property name="maximumSize">
                 <size>
                  <width>16777215</width>
                  <height>16777215</height>
                 </size>
                </property>
                <property name="palette">
                 <palette>
                  <active>
                   <colorrole role="WindowText">
                    <brush brushstyle="SolidPattern">
                     <color alpha="255">
                      <red>0</red>
                      <green>85</green>
                      <blue>255</blue>
                     </color>
                    </brush>
                   </colorrole>
                   <colorrole role="Text">
                    <brush brushstyle="SolidPattern">
                     <color alpha="255">
                      <red>0</red>
                      <green>85</green>
                      <blue>255</blue>
                     </color>
                    </brush>
                   </colorrole>
                   <colorrole role="ToolTipText">
                    <brush brushstyle="SolidPattern">
                     <color alpha="255">
                      <red>0</red>
                      <green>85</green>
                      <blue>255</blue>
                     </color>
                    </brush>
                   </colorrole>
                  </active>
                  <inactive>
                   <colorrole role="WindowText">
                    <brush brushstyle="SolidPattern">
                     <color alpha="255">
                      <red>0</red>
                      <green>85</green>
                      <blue>255</blue>
                     </color>
                    </brush>
                   </colorrole>
                   <colorrole role="Text">
                    <brush brushstyle="SolidPattern">
                     <color alpha="255">
                      <red>0</red>
                      <green>85</green>
                      <blue>255</blue>
                     </color>
                    </brush>
                   </colorrole>
                   <colorrole role="ToolTipText">
                    <brush brushstyle="SolidPattern">
                     <color alpha="255">
                      <red>0</red>
                      <green>85</green>
                      <blue>255</blue>
                     </color>
                    </brush>
                   </colorrole>
                  </inactive>
                  <disabled>
                   <colorrole role="WindowText">
                    <brush brushstyle="SolidPattern">
                     <color alpha="255">
                      <red>120</red>
                      <green>120</green>
                      <blue>120</blue>
                     </color>
                    </brush>
                   </colorrole>
                   <colorrole role="Text">
                    <brush brushstyle="SolidPattern">
                     <color alpha="255">
                      <red>120</red>
                      <green>120</green>
                      <blue>120</blue>
                     </color>
                    </brush>
                   </colorrole>
                   <colorrole role="ToolTipText">
                    <brush brushstyle="SolidPattern">
                     <color alpha="255">
                      <red>0</red>
                      <green>85</green>
                      <blue>255</blue>
                     </color>
                    </brush>
                   </colorrole>
                  </disabled>
                 </palette>
                </property>
                <property name="font">
                 <font>
                  <pointsize>4</pointsize>
                 </font>
                </property>
                <property name="frameShape">
                 <enum>QFrame::Box</enum>
                </property>
                <property name="frameShadow">
                 <enum>QFrame::Raised</enum>
                </property>
                <property name="lineWidth">
                 <number>1</number>
                </property>
                <property name="midLineWidth">
                 <number>0</number>
                </property>
                <property name="smallDecimalPoint">
                 <bool>false</bool>
                </property>
                <property name="digitCount">
                 <number>10</number>
                </property>
                <property name="mode">
                 <enum>QLCDNumber::Dec</enum>
                </property>
                <property name="segmentStyle">
                 <enum>QLCDNumber::Flat</enum>
                </property>
               </widget>
              </item>
              <item>
               <widget class="Line" name="line_5">
                <property name="orientation">
                 <enum>Qt::Horizontal</enum>
                </property>
               </widget>
              </item>
              <item>
               <widget class="QPushButton" name="pushButton_create_MF_shps">
                <property name="sizePolicy">
                 <sizepolicy hsizetype="Expanding" vsizetype="Expanding">
                  <horstretch>0</horstretch>
                  <verstretch>0</verstretch>
                 </sizepolicy>
                </property>
                <property name="minimumSize">
                 <size>
                  <width>0</width>
                  <height>0</height>
                 </size>
                </property>
                <property name="font">
                 <font>
                  <weight>50</weight>
                  <bold>false</bold>
                 </font>
                </property>
                <property name="text">
                 <string>Create MODFLOW Grid</string>
                </property>
               </widget>
              </item>
             </layout>
            </item>
           </layout>
          </item>
         </layout>
        </widget>
       </item>
       <item>
        <spacer name="verticalSpacer">
         <property name="orientation">
          <enum>Qt::Vertical</enum>
         </property>
         <property name="sizeHint" stdset="0">
          <size>
           <width>20</width>
           <height>40</height>
          </size>
         </property>
        </spacer>
       </item>
       <item>
        <widget class="QGroupBox" name="groupBox_9">
         <property name="font">
          <font>
           <weight>75</weight>
           <bold>true</bold>
          </font>
         </property>
         <property name="title">
          <string>Create MODFLOW River Shapefile (Same as &quot;mf_riv2 option&quot;)</string>
         </property>
         <layout class="QVBoxLayout" name="verticalLayout_9">
          <property name="bottomMargin">
           <number>9</number>
          </property>
          <item>
           <layout class="QHBoxLayout" name="horizontalLayout_6">
            <property name="topMargin">
             <number>0</number>
            </property>
            <item>
             <layout class="QFormLayout" name="formLayout_2">
              <property name="verticalSpacing">
               <number>3</number>
              </property>
              <property name="topMargin">
               <number>0</number>
              </property>
              <item row="0" column="0">
               <widget class="QLabel" name="label_8">
                <property name="font">
                 <font>
                  <weight>50</weight>
                  <bold>false</bold>
                 </font>
                </property>
                <property name="text">
                 <string>Hydraulic Conductivity of River Bed Material</string>
                </property>
               </widget>
              </item>
              <item row="0" column="1">
               <widget class="QLineEdit" name="lineEdit_riverbedK2">
                <property name="enabled">
                 <bool>true</bool>
                </property>
                <property name="sizePolicy">
                 <sizepolicy hsizetype="Minimum" vsizetype="Fixed">
                  <horstretch>0</horstretch>
                  <verstretch>0</verstretch>
                 </sizepolicy>
                </property>
                <property name="minimumSize">
                 <size>
                  <width>50</width>
                  <height>0</height>
                 </size>
                </property>
                <property name="maximumSize">
                 <size>
                  <width>100</width>
                  <height>16777215</height>
                 </size>
                </property>
                <property name="font">
                 <font>
                  <weight>50</weight>
                  <bold>false</bold>
                 </font>
                </property>
                <property name="text">
                 <string>0.1</string>
                </property>
                <property name="alignment">
                 <set>Qt::AlignRight|Qt::AlignTrailing|Qt::AlignVCenter</set>
                </property>
               </widget>
              </item>
              <item row="1" column="0">
               <widget class="QLabel" name="label_9">
                <property name="font">
                 <font>
                  <weight>50</weight>
                  <bold>false</bold>
                 </font>
                </property>
                <property name="text">
                 <string>River Bed Thickness</string>
                </property>
                <property name="alignment">
                 <set>Qt::AlignRight|Qt::AlignTrailing|Qt::AlignVCenter</set>
                </property>
               </widget>
              </item>
              <item row="1" column="1">
               <widget class="QLineEdit" name="lineEdit_riverbedThick2">
                <property name="enabled">
                 <bool>true</bool>
                </property>
                <property name="sizePolicy">
                 <sizepolicy hsizetype="Minimum" vsizetype="Fixed">
                  <horstretch>0</horstretch>
                  <verstretch>0</verstretch>
                 </sizepolicy>
                </property>
                <property name="minimumSize">
                 <size>
                  <width>50</width>
                  <height>0</height>
                 </size>
                </property>
                <property name="maximumSize">
                 <size>
                  <width>100</width>
                  <height>16777215</height>
                 </size>
                </property>
                <property name="font">
                 <font>
                  <weight>50</weight>
                  <bold>false</bold>
                 </font>
                </property>
                <property name="text">
                 <string>0.1</string>
                </property>
                <property name="alignment">
                 <set>Qt::AlignRight|Qt::AlignTrailing|Qt::AlignVCenter</set>
                </property>
               </widget>
              </item>
             </layout>
            </item>
            <item>
             <spacer name="horizontalSpacer_10">
              <property name="orientation">
               <enum>Qt::Horizontal</enum>
              </property>
              <property name="sizeType">
               <enum>QSizePolicy::Minimum</enum>
              </property>
              <property name="sizeHint" stdset="0">
               <size>
                <width>40</width>
                <height>20</height>
               </size>
              </property>
             </spacer>
            </item>
            <item>
             <widget class="Line" name="line_4">
              <property name="orientation">
               <enum>Qt::Vertical</enum>
              </property>
             </widget>
            </item>
            <item>
             <spacer name="horizontalSpacer_9">
              <property name="orientation">
               <enum>Qt::Horizontal</enum>
              </property>
              <property name="sizeType">
               <enum>QSizePolicy::Minimum</enum>
              </property>
              <property name="sizeHint" stdset="0">
               <size>
                <width>40</width>
                <height>20</height>
               </size>
              </property>
             </spacer>
            </item>
            <item>
             <widget class="QPushButton" name="pushButton_create_mf_riv_shapefile">
              <property name="sizePolicy">
               <sizepolicy hsizetype="Expanding" vsizetype="Expanding">
                <horstretch>0</horstretch>
                <verstretch>0</verstretch>
               </sizepolicy>
              </property>
              <property name="minimumSize">
               <size>
                <width>150</width>
                <height>0</height>
               </size>
              </property>
              <property name="font">
               <font>
                <weight>50</weight>
                <bold>false</bold>
               </font>
              </property>
              <property name="text">
               <string>Create
MODFLOW River</string>
              </property>
             </widget>
            </item>
           </layout>
          </item>
         </layout>
        </widget>
       </item>
       <item>
        <widget class="QGroupBox" name="groupBox_10">
         <property name="font">
          <font>
           <weight>75</weight>
           <bold>true</bold>
          </font>
         </property>
         <property name="title">
          <string>Aquifer Property Settings</string>
         </property>
         <layout class="QVBoxLayout" name="verticalLayout_8">
          <item>
           <widget class="QGroupBox" name="groupBox_2">
            <property name="font">
             <font>
              <weight>50</weight>